<?xml version='1.0' encoding='utf-8'?>
<routes>
    <vType id="car" accel="2.6" decel="4.5" sigma="0.5" length="5" maxSpeed="13.89" />
    <route id="r0" edges="gotri_s jetalpur_w rcdutt_w racecourse_s" />
    <route id="r1" edges="gotri_s jetalpur_w dandia_w racecourse_n" />
    <route id="r2" edges="gotri_s jetalpur_w dandia_w raopura_w manjalpur_s oldpadra_s" />
    <route id="r3" edges="gotri_s newsama_e" />
    <route id="r4" edges="newsama_w jetalpur_w rcdutt_w racecourse_s" />
    <route id="r5" edges="newsama_w jetalpur_w dandia_w raopura_w manjalpur_s" />
    <route id="r6" edges="newsama_w gotri_n" />
    <route id="r7" edges="oldpadra_n manjalpur_n raopura_e racecourse_n" />
    <route id="r8" edges="oldpadra_n manjalpur_n raopura_e dandia_e jetalpur_e gotri_n" />
    <route id="r9" edges="oldpadra_n manjalpur_n raopura_e dandia_e rcdutt_w" />
    <route id="r10" edges="racecourse_s dandia_e jetalpur_e gotri_n" />
    <route id="r11" edges="racecourse_s dandia_e jetalpur_e newsama_e" />
    <route id="r12" edges="racecourse_s raopura_w manjalpur_s oldpadra_s" />
    <route id="r13" edges="racecourse_s natubhai_loop raopura_e dandia_e" />
    <route id="r14" edges="rcdutt_e jetalpur_e gotri_n" />
    <route id="r15" edges="rcdutt_e jetalpur_e newsama_e" />
    <route id="r16" edges="rcdutt_e dandia_w raopura_w manjalpur_s oldpadra_s" />
    <route id="r17" edges="rcdutt_w racecourse_s raopura_w manjalpur_s" />
    <route id="r18" edges="dandia_e jetalpur_e gotri_n" />
    <route id="r19" edges="dandia_e rcdutt_w racecourse_s" />
    <route id="r20" edges="dandia_w racecourse_n rcdutt_e" />
    <route id="r21" edges="dandia_w raopura_w manjalpur_s oldpadra_s" />
    <route id="r22" edges="raopura_e racecourse_n rcdutt_e jetalpur_e" />
    <route id="r23" edges="raopura_e dandia_e jetalpur_e gotri_n" />
    <route id="r24" edges="manjalpur_n raopura_e racecourse_n" />
    <route id="r25" edges="manjalpur_s oldpadra_s" />
    <route id="r26" edges="jetalpur_w dandia_w racecourse_n" />
    <route id="r27" edges="jetalpur_e gotri_n" />
    <vehicle id="v0" type="car" route="r8" depart="1" departLane="best" departSpeed="max" />
    <vehicle id="v1" type="car" route="r3" depart="3" departLane="best" departSpeed="max" />
    <vehicle id="v2" type="car" route="r13" depart="6" departLane="best" departSpeed="max" />
    <vehicle id="v3" type="car" route="r2" depart="7" departLane="best" departSpeed="max" />
    <vehicle id="v4" type="car" route="r6" depart="10" departLane="best" departSpeed="max" />
    <vehicle id="v5" type="car" route="r12" depart="23" departLane="best" departSpeed="max" />
    <vehicle id="v6" type="car" route="r27" depart="24" departLane="best" departSpeed="max" />
    <vehicle id="v7" type="car" route="r14" depart="27" departLane="best" departSpeed="max" />
    <vehicle id="v8" type="car" route="r7" depart="37" departLane="best" departSpeed="max" />
    <vehicle id="v9" type="car" route="r20" depart="50" departLane="best" departSpeed="max" />
    <vehicle id="v10" type="car" route="r10" depart="62" departLane="best" departSpeed="max" />
    <vehicle id="v11" type="car" route="r18" depart="64" departLane="best" departSpeed="max" />
    <vehicle id="v12" type="car" route="r1" depart="81" departLane="best" departSpeed="max" />
    <vehicle id="v13" type="car" route="r17" depart="94" departLane="best" departSpeed="max" />
    <vehicle id="v14" type="car" route="r23" depart="100" departLane="best" departSpeed="max" />
    <vehicle id="v15" type="car" route="r10" depart="115" departLane="best" departSpeed="max" />
    <vehicle id="v16" type="car" route="r11" depart="117" departLane="best" departSpeed="max" />
    <vehicle id="v17" type="car" route="r18" depart="121" departLane="best" departSpeed="max" />
    <vehicle id="v18" type="car" route="r15" depart="123" departLane="best" departSpeed="max" />
    <vehicle id="v19" type="car" route="r21" depart="127" departLane="best" departSpeed="max" />
    <vehicle id="v20" type="car" route="r7" depart="142" departLane="best" departSpeed="max" />
    <vehicle id="v21" type="car" route="r0" depart="143" departLane="best" departSpeed="max" />
    <vehicle id="v22" type="car" route="r20" depart="147" departLane="best" departSpeed="max" />
    <vehicle id="v23" type="car" route="r2" depart="148" departLane="best" departSpeed="max" />
    <vehicle id="v24" type="car" route="r7" depart="151" departLane="best" departSpeed="max" />
    <vehicle id="v25" type="car" route="r21" depart="161" departLane="best" departSpeed="max" />
    <vehicle id="v26" type="car" route="r12" depart="168" departLane="best" departSpeed="max" />
    <vehicle id="v27" type="car" route="r6" depart="171" departLane="best" departSpeed="max" />
    <vehicle id="v28" type="car" route="r17" depart="181" departLane="best" departSpeed="max" />
    <vehicle id="v29" type="car" route="r12" depart="190" departLane="best" departSpeed="max" />
    <vehicle id="v30" type="car" route="r12" depart="191" departLane="best" departSpeed="max" />
    <vehicle id="v31" type="car" route="r18" depart="206" departLane="best" departSpeed="max" />
    <vehicle id="v32" type="car" route="r16" depart="210" departLane="best" departSpeed="max" />
    <vehicle id="v33" type="car" route="r5" depart="211" departLane="best" departSpeed="max" />
    <vehicle id="v34" type="car" route="r2" depart="212" departLane="best" departSpeed="max" />
    <vehicle id="v35" type="car" route="r18" depart="215" departLane="best" departSpeed="max" />
    <vehicle id="v36" type="car" route="r14" depart="231" departLane="best" departSpeed="max" />
    <vehicle id="v37" type="car" route="r17" depart="234" departLane="best" departSpeed="max" />
    <vehicle id="v38" type="car" route="r26" depart="247" departLane="best" departSpeed="max" />
    <vehicle id="v39" type="car" route="r4" depart="250" departLane="best" departSpeed="max" />
    <vehicle id="v40" type="car" route="r20" depart="263" departLane="best" departSpeed="max" />
    <vehicle id="v41" type="car" route="r24" depart="266" departLane="best" departSpeed="max" />
    <vehicle id="v42" type="car" route="r8" depart="267" departLane="best" departSpeed="max" />
    <vehicle id="v43" type="car" route="r22" depart="272" departLane="best" departSpeed="max" />
    <vehicle id="v44" type="car" route="r4" depart="277" departLane="best" departSpeed="max" />
    <vehicle id="v45" type="car" route="r11" depart="278" departLane="best" departSpeed="max" />
    <vehicle id="v46" type="car" route="r24" depart="285" departLane="best" departSpeed="max" />
    <vehicle id="v47" type="car" route="r5" depart="302" departLane="best" departSpeed="max" />
    <vehicle id="v48" type="car" route="r27" depart="304" departLane="best" departSpeed="max" />
    <vehicle id="v49" type="car" route="r15" depart="305" departLane="best" departSpeed="max" />
    <vehicle id="v50" type="car" route="r26" depart="306" departLane="best" departSpeed="max" />
    <vehicle id="v51" type="car" route="r26" depart="308" departLane="best" departSpeed="max" />
    <vehicle id="v52" type="car" route="r0" depart="310" departLane="best" departSpeed="max" />
    <vehicle id="v53" type="car" route="r8" depart="312" departLane="best" departSpeed="max" />
    <vehicle id="v54" type="car" route="r20" depart="315" departLane="best" departSpeed="max" />
    <vehicle id="v55" type="car" route="r0" depart="319" departLane="best" departSpeed="max" />
    <vehicle id="v56" type="car" route="r8" depart="320" departLane="best" departSpeed="max" />
    <vehicle id="v57" type="car" route="r8" depart="321" departLane="best" departSpeed="max" />
    <vehicle id="v58" type="car" route="r19" depart="322" departLane="best" departSpeed="max" />
    <vehicle id="v59" type="car" route="r19" depart="325" departLane="best" departSpeed="max" />
    <vehicle id="v60" type="car" route="r18" depart="327" departLane="best" departSpeed="max" />
    <vehicle id="v61" type="car" route="r1" depart="328" departLane="best" departSpeed="max" />
    <vehicle id="v62" type="car" route="r25" depart="330" departLane="best" departSpeed="max" />
    <vehicle id="v63" type="car" route="r2" depart="335" departLane="best" departSpeed="max" />
    <vehicle id="v64" type="car" route="r9" depart="340" departLane="best" departSpeed="max" />
    <vehicle id="v65" type="car" route="r22" depart="343" departLane="best" departSpeed="max" />
    <vehicle id="v66" type="car" route="r4" depart="344" departLane="best" departSpeed="max" />
    <vehicle id="v67" type="car" route="r21" depart="345" departLane="best" departSpeed="max" />
    <vehicle id="v68" type="car" route="r17" depart="350" departLane="best" departSpeed="max" />
    <vehicle id="v69" type="car" route="r6" depart="352" departLane="best" departSpeed="max" />
    <vehicle id="v70" type="car" route="r15" depart="358" departLane="best" departSpeed="max" />
    <vehicle id="v71" type="car" route="r21" depart="363" departLane="best" departSpeed="max" />
    <vehicle id="v72" type="car" route="r26" depart="365" departLane="best" departSpeed="max" />
    <vehicle id="v73" type="car" route="r9" depart="367" departLane="best" departSpeed="max" />
    <vehicle id="v74" type="car" route="r6" depart="368" departLane="best" departSpeed="max" />
    <vehicle id="v75" type="car" route="r1" depart="369" departLane="best" departSpeed="max" />
    <vehicle id="v76" type="car" route="r15" depart="370" departLane="best" departSpeed="max" />
    <vehicle id="v77" type="car" route="r12" depart="377" departLane="best" departSpeed="max" />
    <vehicle id="v78" type="car" route="r20" depart="378" departLane="best" departSpeed="max" />
    <vehicle id="v79" type="car" route="r25" depart="384" departLane="best" departSpeed="max" />
    <vehicle id="v80" type="car" route="r7" depart="387" departLane="best" departSpeed="max" />
    <vehicle id="v81" type="car" route="r4" depart="389" departLane="best" departSpeed="max" />
    <vehicle id="v82" type="car" route="r7" depart="404" departLane="best" departSpeed="max" />
    <vehicle id="v83" type="car" route="r24" depart="406" departLane="best" departSpeed="max" />
    <vehicle id="v84" type="car" route="r2" depart="409" departLane="best" departSpeed="max" />
    <vehicle id="v85" type="car" route="r10" depart="411" departLane="best" departSpeed="max" />
    <vehicle id="v86" type="car" route="r17" depart="412" departLane="best" departSpeed="max" />
    <vehicle id="v87" type="car" route="r4" depart="413" departLane="best" departSpeed="max" />
    <vehicle id="v88" type="car" route="r22" depart="414" departLane="best" departSpeed="max" />
    <vehicle id="v89" type="car" route="r6" depart="415" departLane="best" departSpeed="max" />
    <vehicle id="v90" type="car" route="r13" depart="416" departLane="best" departSpeed="max" />
    <vehicle id="v91" type="car" route="r14" depart="417" departLane="best" departSpeed="max" />
    <vehicle id="v92" type="car" route="r13" depart="419" departLane="best" departSpeed="max" />
    <vehicle id="v93" type="car" route="r24" depart="420" departLane="best" departSpeed="max" />
    <vehicle id="v94" type="car" route="r0" depart="425" departLane="best" departSpeed="max" />
    <vehicle id="v95" type="car" route="r12" depart="427" departLane="best" departSpeed="max" />
    <vehicle id="v96" type="car" route="r7" depart="434" departLane="best" departSpeed="max" />
    <vehicle id="v97" type="car" route="r15" depart="435" departLane="best" departSpeed="max" />
    <vehicle id="v98" type="car" route="r10" depart="436" departLane="best" departSpeed="max" />
    <vehicle id="v99" type="car" route="r13" depart="447" departLane="best" departSpeed="max" />
    <vehicle id="v100" type="car" route="r14" depart="448" departLane="best" departSpeed="max" />
    <vehicle id="v101" type="car" route="r8" depart="449" departLane="best" departSpeed="max" />
    <vehicle id="v102" type="car" route="r6" depart="450" departLane="best" departSpeed="max" />
    <vehicle id="v103" type="car" route="r12" depart="452" departLane="best" departSpeed="max" />
    <vehicle id="v104" type="car" route="r26" depart="453" departLane="best" departSpeed="max" />
    <vehicle id="v105" type="car" route="r11" depart="458" departLane="best" departSpeed="max" />
    <vehicle id="v106" type="car" route="r2" depart="459" departLane="best" departSpeed="max" />
    <vehicle id="v107" type="car" route="r0" depart="464" departLane="best" departSpeed="max" />
    <vehicle id="v108" type="car" route="r15" depart="466" departLane="best" departSpeed="max" />
    <vehicle id="v109" type="car" route="r22" depart="469" departLane="best" departSpeed="max" />
    <vehicle id="v110" type="car" route="r11" depart="470" departLane="best" departSpeed="max" />
    <vehicle id="v111" type="car" route="r19" depart="471" departLane="best" departSpeed="max" />
    <vehicle id="v112" type="car" route="r9" depart="475" departLane="best" departSpeed="max" />
    <vehicle id="v113" type="car" route="r0" depart="476" departLane="best" departSpeed="max" />
    <vehicle id="v114" type="car" route="r22" depart="480" departLane="best" departSpeed="max" />
    <vehicle id="v115" type="car" route="r18" depart="481" departLane="best" departSpeed="max" />
    <vehicle id="v116" type="car" route="r24" depart="484" departLane="best" departSpeed="max" />
    <vehicle id="v117" type="car" route="r21" depart="485" departLane="best" departSpeed="max" />
    <vehicle id="v118" type="car" route="r18" depart="487" departLane="best" departSpeed="max" />
    <vehicle id="v119" type="car" route="r13" depart="489" departLane="best" departSpeed="max" />
    <vehicle id="v120" type="car" route="r20" depart="491" departLane="best" departSpeed="max" />
    <vehicle id="v121" type="car" route="r27" depart="492" departLane="best" departSpeed="max" />
    <vehicle id="v122" type="car" route="r26" depart="496" departLane="best" departSpeed="max" />
    <vehicle id="v123" type="car" route="r5" depart="498" departLane="best" departSpeed="max" />
    <vehicle id="v124" type="car" route="r25" depart="501" departLane="best" departSpeed="max" />
    <vehicle id="v125" type="car" route="r7" depart="507" departLane="best" departSpeed="max" />
    <vehicle id="v126" type="car" route="r14" depart="509" departLane="best" departSpeed="max" />
    <vehicle id="v127" type="car" route="r14" depart="510" departLane="best" departSpeed="max" />
    <vehicle id="v128" type="car" route="r15" depart="513" departLane="best" departSpeed="max" />
    <vehicle id="v129" type="car" route="r6" depart="515" departLane="best" departSpeed="max" />
    <vehicle id="v130" type="car" route="r8" depart="516" departLane="best" departSpeed="max" />
    <vehicle id="v131" type="car" route="r19" depart="517" departLane="best" departSpeed="max" />
    <vehicle id="v132" type="car" route="r0" depart="519" departLane="best" departSpeed="max" />
    <vehicle id="v133" type="car" route="r7" depart="521" departLane="best" departSpeed="max" />
    <vehicle id="v134" type="car" route="r7" depart="529" departLane="best" departSpeed="max" />
    <vehicle id="v135" type="car" route="r21" depart="531" departLane="best" departSpeed="max" />
    <vehicle id="v136" type="car" route="r22" depart="537" departLane="best" departSpeed="max" />
    <vehicle id="v137" type="car" route="r7" depart="539" departLane="best" departSpeed="max" />
    <vehicle id="v138" type="car" route="r6" depart="540" departLane="best" departSpeed="max" />
    <vehicle id="v139" type="car" route="r23" depart="541" departLane="best" departSpeed="max" />
    <vehicle id="v140" type="car" route="r6" depart="544" departLane="best" departSpeed="max" />
    <vehicle id="v141" type="car" route="r18" depart="546" departLane="best" departSpeed="max" />
    <vehicle id="v142" type="car" route="r3" depart="549" departLane="best" departSpeed="max" />
    <vehicle id="v143" type="car" route="r11" depart="551" departLane="best" departSpeed="max" />
    <vehicle id="v144" type="car" route="r0" depart="552" departLane="best" departSpeed="max" />
    <vehicle id="v145" type="car" route="r1" depart="554" departLane="best" departSpeed="max" />
    <vehicle id="v146" type="car" route="r27" depart="558" departLane="best" departSpeed="max" />
    <vehicle id="v147" type="car" route="r0" depart="560" departLane="best" departSpeed="max" />
    <vehicle id="v148" type="car" route="r1" depart="564" departLane="best" departSpeed="max" />
    <vehicle id="v149" type="car" route="r27" depart="565" departLane="best" departSpeed="max" />
    <vehicle id="v150" type="car" route="r20" depart="569" departLane="best" departSpeed="max" />
    <vehicle id="v151" type="car" route="r25" depart="571" departLane="best" departSpeed="max" />
    <vehicle id="v152" type="car" route="r7" depart="573" departLane="best" departSpeed="max" />
    <vehicle id="v153" type="car" route="r24" depart="574" departLane="best" departSpeed="max" />
    <vehicle id="v154" type="car" route="r14" depart="579" departLane="best" departSpeed="max" />
    <vehicle id="v155" type="car" route="r18" depart="580" departLane="best" departSpeed="max" />
    <vehicle id="v156" type="car" route="r19" depart="582" departLane="best" departSpeed="max" />
    <vehicle id="v157" type="car" route="r23" depart="583" departLane="best" departSpeed="max" />
    <vehicle id="v158" type="car" route="r24" depart="584" departLane="best" departSpeed="max" />
    <vehicle id="v159" type="car" route="r6" depart="585" departLane="best" departSpeed="max" />
    <vehicle id="v160" type="car" route="r2" depart="586" departLane="best" departSpeed="max" />
    <vehicle id="v161" type="car" route="r5" depart="587" departLane="best" departSpeed="max" />
    <vehicle id="v162" type="car" route="r13" depart="589" departLane="best" departSpeed="max" />
    <vehicle id="v163" type="car" route="r7" depart="592" departLane="best" departSpeed="max" />
    <vehicle id="v164" type="car" route="r9" depart="593" departLane="best" departSpeed="max" />
    <vehicle id="v165" type="car" route="r5" depart="607" departLane="best" departSpeed="max" />
    <vehicle id="v166" type="car" route="r12" depart="614" departLane="best" departSpeed="max" />
    <vehicle id="v167" type="car" route="r1" depart="618" departLane="best" departSpeed="max" />
    <vehicle id="v168" type="car" route="r7" depart="622" departLane="best" departSpeed="max" />
    <vehicle id="v169" type="car" route="r1" depart="629" departLane="best" departSpeed="max" />
    <vehicle id="v170" type="car" route="r16" depart="631" departLane="best" departSpeed="max" />
    <vehicle id="v171" type="car" route="r18" depart="634" departLane="best" departSpeed="max" />
    <vehicle id="v172" type="car" route="r3" depart="640" departLane="best" departSpeed="max" />
    <vehicle id="v173" type="car" route="r22" depart="642" departLane="best" departSpeed="max" />
    <vehicle id="v174" type="car" route="r2" depart="647" departLane="best" departSpeed="max" />
    <vehicle id="v175" type="car" route="r10" depart="648" departLane="best" departSpeed="max" />
    <vehicle id="v176" type="car" route="r24" depart="649" departLane="best" departSpeed="max" />
    <vehicle id="v177" type="car" route="r11" depart="656" departLane="best" departSpeed="max" />
    <vehicle id="v178" type="car" route="r8" depart="660" departLane="best" departSpeed="max" />
    <vehicle id="v179" type="car" route="r20" depart="665" departLane="best" departSpeed="max" />
    <vehicle id="v180" type="car" route="r5" depart="667" departLane="best" departSpeed="max" />
    <vehicle id="v181" type="car" route="r0" depart="668" departLane="best" departSpeed="max" />
    <vehicle id="v182" type="car" route="r26" depart="670" departLane="best" departSpeed="max" />
    <vehicle id="v183" type="car" route="r26" depart="673" departLane="best" departSpeed="max" />
    <vehicle id="v184" type="car" route="r22" depart="674" departLane="best" departSpeed="max" />
    <vehicle id="v185" type="car" route="r22" depart="675" departLane="best" departSpeed="max" />
    <vehicle id="v186" type="car" route="r26" depart="676" departLane="best" departSpeed="max" />
    <vehicle id="v187" type="car" route="r6" depart="680" departLane="best" departSpeed="max" />
    <vehicle id="v188" type="car" route="r25" depart="685" departLane="best" departSpeed="max" />
    <vehicle id="v189" type="car" route="r25" depart="687" departLane="best" departSpeed="max" />
    <vehicle id="v190" type="car" route="r9" depart="690" departLane="best" departSpeed="max" />
    <vehicle id="v191" type="car" route="r24" depart="697" departLane="best" departSpeed="max" />
    <vehicle id="v192" type="car" route="r6" depart="700" departLane="best" departSpeed="max" />
    <vehicle id="v193" type="car" route="r12" depart="702" departLane="best" departSpeed="max" />
    <vehicle id="v194" type="car" route="r24" depart="703" departLane="best" departSpeed="max" />
    <vehicle id="v195" type="car" route="r15" depart="705" departLane="best" departSpeed="max" />
    <vehicle id="v196" type="car" route="r21" depart="708" departLane="best" departSpeed="max" />
    <vehicle id="v197" type="car" route="r1" depart="711" departLane="best" departSpeed="max" />
    <vehicle id="v198" type="car" route="r18" depart="712" departLane="best" departSpeed="max" />
    <vehicle id="v199" type="car" route="r3" depart="713" departLane="best" departSpeed="max" />
    <vehicle id="v200" type="car" route="r15" depart="721" departLane="best" departSpeed="max" />
    <vehicle id="v201" type="car" route="r19" depart="723" departLane="best" departSpeed="max" />
    <vehicle id="v202" type="car" route="r10" depart="729" departLane="best" departSpeed="max" />
    <vehicle id="v203" type="car" route="r21" depart="735" departLane="best" departSpeed="max" />
    <vehicle id="v204" type="car" route="r20" depart="740" departLane="best" departSpeed="max" />
    <vehicle id="v205" type="car" route="r5" depart="742" departLane="best" departSpeed="max" />
    <vehicle id="v206" type="car" route="r25" depart="745" departLane="best" departSpeed="max" />
    <vehicle id="v207" type="car" route="r11" depart="746" departLane="best" departSpeed="max" />
    <vehicle id="v208" type="car" route="r4" depart="747" departLane="best" departSpeed="max" />
    <vehicle id="v209" type="car" route="r13" depart="748" departLane="best" departSpeed="max" />
    <vehicle id="v210" type="car" route="r2" depart="751" departLane="best" departSpeed="max" />
    <vehicle id="v211" type="car" route="r21" depart="753" departLane="best" departSpeed="max" />
    <vehicle id="v212" type="car" route="r18" depart="754" departLane="best" departSpeed="max" />
    <vehicle id="v213" type="car" route="r14" depart="755" departLane="best" departSpeed="max" />
    <vehicle id="v214" type="car" route="r17" depart="761" departLane="best" departSpeed="max" />
    <vehicle id="v215" type="car" route="r14" depart="762" departLane="best" departSpeed="max" />
    <vehicle id="v216" type="car" route="r13" depart="765" departLane="best" departSpeed="max" />
    <vehicle id="v217" type="car" route="r12" depart="768" departLane="best" departSpeed="max" />
    <vehicle id="v218" type="car" route="r12" depart="770" departLane="best" departSpeed="max" />
    <vehicle id="v219" type="car" route="r26" depart="774" departLane="best" departSpeed="max" />
    <vehicle id="v220" type="car" route="r18" depart="776" departLane="best" departSpeed="max" />
    <vehicle id="v221" type="car" route="r25" depart="785" departLane="best" departSpeed="max" />
    <vehicle id="v222" type="car" route="r20" depart="786" departLane="best" departSpeed="max" />
    <vehicle id="v223" type="car" route="r8" depart="787" departLane="best" departSpeed="max" />
    <vehicle id="v224" type="car" route="r14" depart="795" departLane="best" departSpeed="max" />
    <vehicle id="v225" type="car" route="r11" depart="796" departLane="best" departSpeed="max" />
    <vehicle id="v226" type="car" route="r9" depart="798" departLane="best" departSpeed="max" />
    <vehicle id="v227" type="car" route="r13" depart="799" departLane="best" departSpeed="max" />
    <vehicle id="v228" type="car" route="r4" depart="800" departLane="best" departSpeed="max" />
    <vehicle id="v229" type="car" route="r16" depart="803" departLane="best" departSpeed="max" />
    <vehicle id="v230" type="car" route="r26" depart="806" departLane="best" departSpeed="max" />
    <vehicle id="v231" type="car" route="r27" depart="809" departLane="best" departSpeed="max" />
    <vehicle id="v232" type="car" route="r3" depart="810" departLane="best" departSpeed="max" />
    <vehicle id="v233" type="car" route="r24" depart="812" departLane="best" departSpeed="max" />
    <vehicle id="v234" type="car" route="r25" depart="819" departLane="best" departSpeed="max" />
    <vehicle id="v235" type="car" route="r8" depart="820" departLane="best" departSpeed="max" />
    <vehicle id="v236" type="car" route="r7" depart="828" departLane="best" departSpeed="max" />
    <vehicle id="v237" type="car" route="r19" depart="832" departLane="best" departSpeed="max" />
    <vehicle id="v238" type="car" route="r2" depart="833" departLane="best" departSpeed="max" />
    <vehicle id="v239" type="car" route="r1" depart="838" departLane="best" departSpeed="max" />
    <vehicle id="v240" type="car" route="r15" depart="840" departLane="best" departSpeed="max" />
    <vehicle id="v241" type="car" route="r7" depart="841" departLane="best" departSpeed="max" />
    <vehicle id="v242" type="car" route="r14" depart="843" departLane="best" departSpeed="max" />
    <vehicle id="v243" type="car" route="r23" depart="844" departLane="best" departSpeed="max" />
    <vehicle id="v244" type="car" route="r22" depart="854" departLane="best" departSpeed="max" />
    <vehicle id="v245" type="car" route="r14" depart="855" departLane="best" departSpeed="max" />
    <vehicle id="v246" type="car" route="r11" depart="857" departLane="best" departSpeed="max" />
    <vehicle id="v247" type="car" route="r21" depart="858" departLane="best" departSpeed="max" />
    <vehicle id="v248" type="car" route="r20" depart="859" departLane="best" departSpeed="max" />
    <vehicle id="v249" type="car" route="r12" depart="860" departLane="best" departSpeed="max" />
    <vehicle id="v250" type="car" route="r3" depart="861" departLane="best" departSpeed="max" />
    <vehicle id="v251" type="car" route="r6" depart="864" departLane="best" departSpeed="max" />
    <vehicle id="v252" type="car" route="r25" depart="867" departLane="best" departSpeed="max" />
    <vehicle id="v253" type="car" route="r4" depart="868" departLane="best" departSpeed="max" />
    <vehicle id="v254" type="car" route="r26" depart="870" departLane="best" departSpeed="max" />
    <vehicle id="v255" type="car" route="r6" depart="872" departLane="best" departSpeed="max" />
    <vehicle id="v256" type="car" route="r24" depart="874" departLane="best" departSpeed="max" />
    <vehicle id="v257" type="car" route="r19" depart="875" departLane="best" departSpeed="max" />
    <vehicle id="v258" type="car" route="r27" depart="876" departLane="best" departSpeed="max" />
    <vehicle id="v259" type="car" route="r27" depart="881" departLane="best" departSpeed="max" />
    <vehicle id="v260" type="car" route="r0" depart="882" departLane="best" departSpeed="max" />
    <vehicle id="v261" type="car" route="r25" depart="883" departLane="best" departSpeed="max" />
    <vehicle id="v262" type="car" route="r10" depart="884" departLane="best" departSpeed="max" />
    <vehicle id="v263" type="car" route="r8" depart="885" departLane="best" departSpeed="max" />
    <vehicle id="v264" type="car" route="r23" depart="886" departLane="best" departSpeed="max" />
    <vehicle id="v265" type="car" route="r2" depart="888" departLane="best" departSpeed="max" />
    <vehicle id="v266" type="car" route="r16" depart="892" departLane="best" departSpeed="max" />
    <vehicle id="v267" type="car" route="r19" depart="893" departLane="best" departSpeed="max" />
    <vehicle id="v268" type="car" route="r25" depart="894" departLane="best" departSpeed="max" />
    <vehicle id="v269" type="car" route="r20" depart="897" departLane="best" departSpeed="max" />
    <vehicle id="v270" type="car" route="r15" depart="899" departLane="best" departSpeed="max" />
    <vehicle id="v271" type="car" route="r22" depart="902" departLane="best" departSpeed="max" />
    <vehicle id="v272" type="car" route="r2" depart="904" departLane="best" departSpeed="max" />
    <vehicle id="v273" type="car" route="r4" depart="905" departLane="best" departSpeed="max" />
    <vehicle id="v274" type="car" route="r8" depart="906" departLane="best" departSpeed="max" />
    <vehicle id="v275" type="car" route="r19" depart="910" departLane="best" departSpeed="max" />
    <vehicle id="v276" type="car" route="r22" depart="914" departLane="best" departSpeed="max" />
    <vehicle id="v277" type="car" route="r20" depart="915" departLane="best" departSpeed="max" />
    <vehicle id="v278" type="car" route="r14" depart="919" departLane="best" departSpeed="max" />
    <vehicle id="v279" type="car" route="r23" depart="923" departLane="best" departSpeed="max" />
    <vehicle id="v280" type="car" route="r13" depart="924" departLane="best" departSpeed="max" />
    <vehicle id="v281" type="car" route="r8" depart="925" departLane="best" departSpeed="max" />
    <vehicle id="v282" type="car" route="r4" depart="926" departLane="best" departSpeed="max" />
    <vehicle id="v283" type="car" route="r2" depart="929" departLane="best" departSpeed="max" />
    <vehicle id="v284" type="car" route="r3" depart="930" departLane="best" departSpeed="max" />
    <vehicle id="v285" type="car" route="r4" depart="932" departLane="best" departSpeed="max" />
    <vehicle id="v286" type="car" route="r3" depart="936" departLane="best" departSpeed="max" />