<?xml version="1.0" encoding="UTF-8"?>
<nodes>
    <!-- Main intersections (traffic lights) -->
    <node id="natubhai"   x="0"     y="0"     type="traffic_light"/>
    <node id="prodmore"   x="0"     y="300"   type="traffic_light"/>
    <node id="karelibaug" x="250"   y="0"     type="traffic_light"/>
    <node id="sama"       x="550"   y="0"     type="traffic_light"/>
    <node id="raopura_jn" x="-200"  y="0"     type="traffic_light"/>
    <node id="manjalpur"  x="-200"  y="-300"  type="traffic_light"/>

    <!-- Terminal nodes -->
    <node id="gotri_end"    x="550"   y="550"   type="priority"/>
    <node id="newsama_end"  x="800"   y="0"     type="priority"/>
    <node id="oldpadra_end" x="-200"  y="-600"  type="priority"/>
</nodes>
