<?xml version="1.0" encoding="UTF-8"?>
<edges>
    <!-- Race Course Road: Natubhai Circle → Prodmore Circle -->
    <edge id="racecourse_n" from="natubhai"   to="prodmore"   numLanes="2" speed="13.89" length="280.5"/>
    <edge id="racecourse_s" from="prodmore"   to="natubhai"   numLanes="2" speed="13.89" length="280.5"/>

    <!-- RC Dutt Road: Prodmore → Karelibaug -->
    <edge id="rcdutt_e"     from="prodmore"   to="karelibaug" numLanes="2" speed="13.89" length="291.9"/>
    <edge id="rcdutt_w"     from="karelibaug" to="prodmore"   numLanes="2" speed="13.89" length="291.9"/>

    <!-- Dandia Bazaar Road: Natubhai Circle → Karelibaug -->
    <edge id="dandia_e"     from="natubhai"   to="karelibaug" numLanes="2" speed="11.11" length="96.3"/>
    <edge id="dandia_w"     from="karelibaug" to="natubhai"   numLanes="2" speed="11.11" length="96.3"/>

    <!-- Jetalpur Road: Karelibaug → Sama -->
    <edge id="jetalpur_e"   from="karelibaug" to="sama"       numLanes="2" speed="13.89" length="199.0"/>
    <edge id="jetalpur_w"   from="sama"       to="karelibaug" numLanes="2" speed="13.89" length="199.0"/>

    <!-- Gotri Road: Sama → Gotri End -->
    <edge id="gotri_n"      from="sama"       to="gotri_end"  numLanes="2" speed="13.89" length="505.8"/>
    <edge id="gotri_s"      from="gotri_end"  to="sama"       numLanes="2" speed="13.89" length="505.8"/>

    <!-- New Sama Road: Sama → New Sama End -->
    <edge id="newsama_e"    from="sama"       to="newsama_end" numLanes="2" speed="13.89" length="188.4"/>
    <edge id="newsama_w"    from="newsama_end" to="sama"       numLanes="2" speed="13.89" length="188.4"/>

    <!-- Raopura Road: Natubhai Circle → Raopura Junction -->
    <edge id="raopura_w"    from="natubhai"   to="raopura_jn" numLanes="2" speed="11.11" length="93.7"/>
    <edge id="raopura_e"    from="raopura_jn" to="natubhai"   numLanes="2" speed="11.11" length="93.7"/>

    <!-- Manjalpur Gate Road: Raopura Jn → Manjalpur -->
    <edge id="manjalpur_s"  from="raopura_jn" to="manjalpur"  numLanes="2" speed="11.11" length="178.8"/>
    <edge id="manjalpur_n"  from="manjalpur"  to="raopura_jn" numLanes="2" speed="11.11" length="178.8"/>

    <!-- Old Padra Road: Manjalpur → Old Padra End -->
    <edge id="oldpadra_s"   from="manjalpur"  to="oldpadra_end" numLanes="2" speed="13.89" length="264.7"/>
    <edge id="oldpadra_n"   from="oldpadra_end" to="manjalpur"  numLanes="2" speed="13.89" length="264.7"/>

    <!-- Natubhai Circle connector (very short, models the roundabout) -->
    <edge id="natubhai_loop" from="natubhai"  to="raopura_jn" numLanes="1" speed="8.33"  length="30.4"
          allow="passenger"/>
</edges>
